ELEMENTS
C H O N
END

SPECIES
!N2 O2 CH2O
CH2O N2
END

REACTIONS
END

