ELEMENTS
C H O N
END

SPECIES
!N2 O2 CH2O
C2H4 N2
END

REACTIONS
END

