ELEMENTS
C H O N
END

SPECIES
N2 TAR H2O
END

REACTIONS
END

